TEBENS 299 TERENTIANVS

— cn(AvD1vs) TEBENS.

36 *Q Tedius‚ homo luxuriosus sub Augusto Tae. a. 1, 10 (traditur
que tedii, vice reete Q. Tedii praeterea iynoti nomen introduxit Bro-
tierius, ef. Nipperdey ad Tae. l. e. et Hirschfeld Herm. 24 p. 104).

37 TEDIVS AFER cum esset consul designatus, Augusti minis territus,
mortem sibi conscivit Suet. Aug). 27 (temporibus triumviratus ut
videtur). Hunc esse Uttiedium Afrum, auyurem, consulem desiynatum‚
memoratum in t. ayro Tiburtini XIV 3615, coniecit Borqhesius opp. 8
p. 8, ef. infra sub Uttiedio Afro.

38 SEX. TEDIVS (Sive TEIDIVS) VALERIVS CATVLLVS (Sex. Tedlus
Val[e]r[ius] Cat[ul]lus XIV 2466, ubi non reete antea edebatur Sex. ν
Tedius Catullinust, Sex. Teidius Catull. fasti Nolani, Sex. Teidi[us]
fasti Arval ...... [CJatul. . . fasti Vallenses), consul suff. a. 31 ex
d. VII id. Mai usque ad kal. Iun., una cum Fausto Cornelio Sulla
fasti Nolani (X 1233), fasti fratr. Arv. (CIL. I ed. 2 p. 71), fasti
Vallenses (ib. p. 240),· XIV 2466. Fortasse non diversus . . Valerius
Catull(us) co[s.] XIV 2095, ef. infra sub Valeriis Catullis.

39 [P011]a(?) Teidia, Sex, f., uxor Licini cuiusdam VI 21363. Filiam
esse eius qui praeeedit coniecit Borylzesius opp. 5, 336 ‚· mihi videtur
t. paullo antiquior esse.

40 TEIA RVFINA virgo Vestalis VI 271320. 27133. 27134.

-— TI. CL(AVDIVS) AVRE(L1VS) TELEMAOHVS.

— TI. CLAVDIVS TELEMACHVS.

-- C. Licinius Telemachus.

41 Telephus, mulieris servus nomenclator, in Augustum coniuravit Suet.
Aug). 19.

42 Telephus (talephus traditur vit. Veri), Pergamenus Aelian. nat. anim.
10, 42, Suid. s. v. Τήλεφος, grammaticus Galen. 6, 333. 379 Kuhn,
vit. Veri 2, 5, Suid. l. e. Eum audiit Verus imperator vit. Veri 2, 5.
Oitatur Aelian. l. e. Corpore imbecillo; nihilominus vitam ad cen-
tesimum paene annum protraxit Galenus de sanitate tuenda lib. V
(vol. 6 p. 333. 379 Kuhn). Scripta eius enumerat Suidas s. v.

—- LVOCIA TELESINA.

-— C. LVCCIVS TELESINVS.

—- Faenius Telesphorus.

43 TEN[A]GONIA CLAVDIA clarissima femina t. Veronae extans V 3345
(nomen qentilioium redire videtur in t. in Anaunis reperto ap. Pais
n. 715: Q. Tenagino Maximus).

44 Terentianus, amicus ut videtur Martialis, Syenen regebat circa a. 85
(praefectus cohortis ut videtur) Martial. 1, 86, 7.

45 Terentianus, cuius extat liber (sive tres libri fuerunt) de litteris syl-
labis metris (Grammat. Lat. ed. Keil 6, 325 seq.): Maurus ipse v. 1971,
Auqustinus de utilitate credendi e. 7, 17 (VIII 77 ed. Meque), de eiv. dei
6, 2. Scripta eius adhibuit Diomedes p. 498, 6. 503, 16. 19 Keil,

